#!/bin/bash

#------------------------------------------------------------------------------
#          Harvard University Atmospheric Chemistry Modeling Group            !
#------------------------------------------------------------------------------
#BOP
#
# !MODULE: interactive_openmp
#
# !DESCRIPTION: Shell script to request an interactive session on Odyssey,
#  geared for OpenMP jobs (i.e. all CPUs on the same node).
#\\
#\\
# !CALLING SEQUENCE:
#  interactive CPUS MEMORY-PER-CPU [TIME-IN-MINUTES]
#
# !REMARKS:
#  Executes the srun command.  For now, all CPUs are placed on one node,
#  for traditional GEOS-Chem usage.
#
# !REVISION HISTORY: 
#  28 Oct 2014 - R. Yantosca - Initial version
#  10 Jul 2015 - R. Yantosca - Now print the input arguments to stdout
#EOP
#------------------------------------------------------------------------------
#BOC

# Process the input arguments.  Use defaults if the
# user supplies less than 3 argumetnts. (bmy, 7/10/15)
if [[ $# == 3 ]]; then
   cpus=$1
   mem=$2
   time=$3
elif [[ $# == 2 ]] ; then
   cpus=$1
   mem=$2
   time=60
else
   echo "Usage: interactive_openmp CPUS MEM-PER-CPU [TIME-IN-MINUTES]"
   exit 1
fi

# Print information
echo "%%%%%%%%%%%%%%%%%%%%%%%%%%%%%%%%%%%%%%%%%%%%%%%%%"
echo "%%% Starting an Odyssey interactive session!"
echo "%%% Number of CPUs  : $cpus"
echo "%%% Number of Nodes : 1"
echo "%%% Memory per CPU  : $mem MB"
echo "%%% Requested time  : $time minutes"
echo "%%%%%%%%%%%%%%%%%%%%%%%%%%%%%%%%%%%%%%%%%%%%%%%%%"

# Start the interactive session
srun --pty --x11=first -n $cpus -N 1 --mem-per-cpu=$mem -t $time -p interact /bin/bash

# Also set the proper # of CPUs for OpenMP parallelization
export OMP_NUM_THREADS=$cpus

#EOC