#------------------------------------------------------------------------------
#          Harvard University Atmospheric Chemistry Modeling Group            !
#------------------------------------------------------------------------------
#BOP
#
# !MODULE: .bashrc_AS
#
# !DESCRIPTION: File containing environment settings for the bash shell on
#  the AS cluster.  Rename this file .bashrc when copying to your home
#  directory on AS.
#\\
#\\
# !CALLING SEQUENCE:
#  source ~/.bashrc
#
# !REMARKS:
#  We have included settings that are common to all GEOS-Chem users on the 
#  Jacob-group Atmospheric Sciences cluster (as.harvard.edu), including
#  frequently used libraries and paths and aliases for common unix commands.
#  You can define additional aliases that are only applicable to your own
#  environment in the file .my_personal_settings.
#
# !REVISION HISTORY: 
#  Change directory to ~/env and type 'gitk' at the prompt to browse
#  revision history.
#EOP
#------------------------------------------------------------------------------
#BOC

#==============================================================================
# %%%%% General system startup settings %%%%%
#==============================================================================

# %%%%% Source systemwide global definitions from /etc/bashrc %%%%%
if [[ -f /etc/bashrc ]] ; then
 . /etc/bashrc
fi

# %%%%% Set Unix prompt to be "[USER@HOST CWD]%" %%%%%
# Use red to contrast with green on Odyssey
PS1="\[\e[1;31m\][\u@AS \W]$\[\e[0m\] "

# %%%%% Startup settings %%%%%
umask 022                          # Make files readable by everyone by default
set autolist                       # Turn on list completion
set correct                        #
set color                          # 
set colorcat                       # 
set filesc                         #
set emacs                          # Use an emacs-style editing interface
set history                        # Turn on history of commands
set ignoreeof                      # Prevent EOF from terminating the shell
ulimit -t unlimited                # Max out cputime
ulimit -f unlimited                # Max out filesize
ulimit -d unlimited                # Max out datasize
ulimit -s unlimited                # Max out stacksize
ulimit -c unlimited                # Max out coredumpsize

# %%%%% Prevent emacs warning messages %%%%%
# GLib-GIO-Message: Using the 'memory' GSettings backend...
export GSETTINGS_BACKEND="memory"
# ** (emacs:6160): WARNING **: Couldn't connect to accessibility bus: Failed to 
# connect to socket /tmp/dbus-BG3atMPpx8: Connection refused
export NO_AT_BRIDGE=1

#==============================================================================
# %%%%% Settings for data paths %%%%%
#==============================================================================

# %%%%% Settings for GIGCsa %%%%%
export ARCH=`uname -s`

# %%%%% Settings for netCDF, HDF, etc. libraries %%%%%
export NETCDF_HOME="/opt/GEOS-Chem-Libraries/ifort/nc4"   # nc dir
export NETCDF_F_HOME=$NETCDF_HOME                         # nc-fortran dir
export GC_BIN="$NETCDF_HOME/bin"                           # netcdf bin dir
export GC_INCLUDE="$NETCDF_HOME/include"                   # netcdf include dir
export GC_LIB="$NETCDF_HOME/lib"                           # netcdf library dir
export BIN_NETCDF=$GC_BIN                                  # aka GC_BIN
export INC_NETCDF=$GC_INCLUDE                              # aka GC_INCLUDE
export LIB_NETCDF=$GC_LIB                                  # aka GC_LIB
export BIN_HDF5=$GC_BIN                                    # aka GC_BIN
export INC_HDF5=$GC_INCLUDE                                # aka GC_INCLUDE
export LIB_HDF5=$GC_LIB                                    # aka GC_LIB

# %%%%% Settings for met field & emissions directories %%%%%
dataDir="/mnt/gcgrid-rw/data"
dataDirReadOnly="/mnt/gcgrid/data"
alias  XC="cd $dataDir/GEOS_0.5x0.666_CH"
alias  XC5="cd $dataDir/GEOS_0.5x0.666_CH.d/GEOS_5"
alias  XS="cd $dataDir/GEOS_0.25x0.3125_NA/"
alias  XNFP="cd $dataDir/GEOS_0.25x0.3125_NA.d/GEOS_FP/"
alias  XN="cd $dataDir/GEOS_0.5x0.666_NA"
alias  XN5="cd $dataDir/GEOS_0.5x0.666_NA.d/GEOS_5"
alias  X1="cd $dataDir/GEOS_1x1"
alias  XNN="cd $dataDir/GEOS_NATIVE"
alias  X2="cd $dataDir/GEOS_2x2.5"
alias  X24="cd $dataDir/GEOS_2x2.5.d/GEOS_4_v4"
alias  X25="cd $dataDir/GEOS_2x2.5.d/GEOS_5"
alias  X2FP="cd $dataDir/GEOS_2x2.5.d/GEOS_FP"
alias  X2M="cd $dataDir/GEOS_2x2.5.d/MERRA"
alias  X4="cd $dataDir/GEOS_4x5"
alias  X44="cd $dataDir/GEOS_4x5/GEOS_4_v4"
alias  X45="cd $dataDir/GEOS_4x5/GEOS_5"
alias  X4FP="cd $dataDir/GEOS_4x5/GEOS_FP"
alias  X4M="cd $dataDir/GEOS_4x5/MERRA"
export DATA_ROOT="$dataDir/ExtData/"
export DATA_ROOT_RW="$dataDirReadOnly/ExtData/"
export HEMCO_DATA_ROOT="$dataDirReadOnly/ExtData/HEMCO"
export HEMCO_DATA_ROOT_RW="$dataDir/ExtData/HEMCO"
export EXTDATA="$dataDirReadOnly/ExtData"
export EXTDATA_RW="$dataDir/ExtData"
unset dataDir
unset dataDirReadOnly

# %%%%% Add updates to path variable %%%%%
PATH=$PATH:/usr/lib64

#==============================================================================
# %%%%% Settings for Git and GitHub %%%%%
#==============================================================================

# %%%%% Basic Git commands %%%%%
alias  gui="git gui &"
alias  gk="gitk &"
alias  gka="gitk --all &"
alias  gl="git log"
alias  glo="git log --oneline"
alias  glp="git log --pretty=format:'%h : %s' --topo-order --graph"

# %%%%% Git commands for the Jacob-group websites %%%%%
export ACMG_WEB="git://git-home.as.harvard.edu/acmg.seas.harvard.edu"
alias  WG="cd $HOME/web/geos"
alias  WH="cd $HOME/web/htdocs"
alias  WP="cd $HOME/web/publications"
alias  WE="cd $HOME/web/presentations"
alias  wpg="git pull ${ACMG_WEB}/geos master"
alias  wph="git pull ${ACMG_WEB}/htdocs master"
alias  wpp="git pull ${ACMG_WEB}/publications master"
alias  wpe="git pull ${ACMG_WEB}/presentations master"

# %%%%% Commands to sync .bashrc etc files %%%%%
alias  getenv="cd ~/env; git pull origin master"

#==============================================================================
# %%%%% Settings for programming languages and applications %%%%%
#==============================================================================

# %%%%% Settings for Fortran and C %%%%%
export FC=ifort
export CC=gcc
export CXX=g++
export F90=$FC
export F77=$FC

# %%%%% Settings for OpenMP parallelization %%%%%
export OMP_NUM_THREADS=4               # NOTE: Set this manually on Odyssey!
export KMP_STACKSIZE=500000000          # NOTE: Set 100x larger than in csh!

# %%%%% Settings for OpenMPI parallelization %%%%%
export OMPI_FC=$FC
export OMPI_CC=$CC
export OMPI_CXX=$CXX

# %%%%% Settings for IDL %%%%%
export IDL_STARTUP="$HOME/IDL/idl_startup.pro"
alias  I="cd $HOME/IDL"
alias  IG="cd $HOME/IDL/gamap2"
alias  IS="cd $HOME/IDL/tests"

# %%%%% Settings for NCL %%%%%
unset  NCARG_FONTCAPS
unset  NCARG_GRAPHCAPS
unset  NCARG_ROOT
unset  NCARG_DATABASE
unset  NCARG_LIB
unset  NCARG_NCARG
export NCARG_ROOT="/opt/ncl-6.1.2"

# %%%%% Settings for Python %%%%%
export PYTHONSTTARTUP="$HOME/python/python_startup.py"

#------------------------------------------------------------------------------
## %%% Settings for TAU profiler %%%
# path= "$path /home/jlinford/TAU/pdtoolkit-3.20/x86_64/bin"
# path= "$path /home/jlinford/TAU/tau2/x86_64/bin"
# path= "$path /home/jlinford/TAU/tau-2.23b0/x86_64/bin"
# export TAU_OPTIONS="-optVerbose -optPreProcess -optContinueBeforeOMP"
# export TAU_VERBOSE=1
# export TAU_PROFILE=1
# export TAU_TRACE=0
# export TAU_OPENMP_RUNTIME=1
# export TAU_OPENMP_RUNTIME_EVENTS=1
# export TAU_OPENMP_RUNTIME_CONTEXT=region
# export TAU_TRACK_MEMORY_LEAKS=0
# alias  set_tau "source /home/jlinford/TAU/tau.csh"
# alias  pe_load 'taudb_loadtrial -c geos-chem -m "APPLICATION=geos-chem:EXPERIMENT=tutorial"'
#------------------------------------------------------------------------------

# %%%%% Settings for Ghostview %%%%%
export GS_DEVICE="x11"

#==============================================================================
# %%%%% Display options %%%%%
#==============================================================================

# %%% Settings for colorization %%%
export GREP_OPTIONS=--color=auto
export GREP_COLOR=32
export LS_COLORS='no=00:fi=00:di=01;33:ln=01;36:pi=40;33:so=01;35:do=01;35:bd=40;33;01:cd=40;33;01:or=40;31;01:su=37;41:sg=30;43:tw=30;42:ow=34;42:st=37;44:ex=01;32:*.tar=01;37:*.tgz=01;37:*.arj=01;37:*.taz=01;37:*.lzh=01;37:*.zip=01;37:*.z=01;37:*.Z=01;37:*.gz=01;37:*.bz2=01;37:*.deb=01;37:*.rpm=01;37:*.jar=01;37:*.jpg=01;35:*.jpeg=01;35:*.gif=01;35:*.bmp=01;35:*.pbm=01;35:*.pgm=01;35:*.ppm=01;35:*.tga=01;35:*.xbm=01;35:*.xpm=01;35:*.tif=01;35:*.tiff=01;35:*.png=01;35:*.mov=01;35:*.mpg=01;35:*.mpeg=01;35:*.avi=01;35:*.fli=01;35:*.gl=01;35:*.dl=01;35:*.xcf=01;35:*.xwd=01;35:*.flac=01;35:*.mp3=01;35:*.mpc=01;35:*.ogg=01;35:*.wav=01;35:'

#==============================================================================
# %%%%% User-defined shortcut aliases %%%%%
#==============================================================================

# %%%%% Aliases for general Unix commands %%%%
alias  disk="du -h -s -c"
alias  g="grep -in"
alias  gf="gifview"
alias  gt="grep -in --text"
alias  gf="gifview -a"
alias  gvs="gv --orientation=seascape"
alias  m="less"
alias  me="xterm &"
alias  pan="$HOME/bin/panoply.sh &"
alias  proc="ps -ef | grep $USER | sort"
alias  pu="rm *~"
alias  sb=". ~/.bash_profile"
alias  ssh="ssh -X -A"
alias  gsh="ssh -xT"
alias  tf="tail --follow"
alias  zap="kill -9"

# %%%%% Aliases for directory listing %%%%%
alias  ls="ls -CF --time-style=long-iso --color=auto"
alias  l1="ls -1"
alias  ll="ls -l"
alias  llt="ls -lt"
alias  lltm="ls -lt | less"
alias  la="ls -a"
alias  lla="ls -la"
alias  llh="ls -lh"

# %%%%% Aliases for transferring files %%%%%
# This command sets up a ssh connection to Odyssey in the background. For it
# to work properly, you need to make sure Host OD is defined in your
# ~/.ssh/config file. You will be prompted for your password and verification
# code. Once a connection is established, you will not need to enter this
# information for subsequent ssh or scp commands.
alias sshod="ssh -Y -C -o ServerAliveInterval=30 -fN OD"

# %%%%% Sun Grid Engine commands for AS %%%%%
alias  qq="qconf -spl"
alias  qs="qstat -f"
alias  qj="qstat -u $USER"
alias  qja='qstat -u "*"'
alias  qa="qacct -j"

# %%%%% Source a file with your own personal aliases and settings %%%%%
if [[ -f $HOME/.my_personal_settings ]] ; then
 . $HOME/.my_personal_settings
fi
#EOC
