#------------------------------------------------------------------------------
#          Harvard University Atmospheric Chemistry Modeling Group            !
#------------------------------------------------------------------------------
#BOP
#
# !MODULE: .my_personal_settings
#
# !DESCRIPTION: A .bashrc-style file that you can use to contain your own
#  personal settings for either the AS cluster or the Odyssey cluster.
#\\
#\\
# !CALLING SEQUENCE:
#  source ~/.my_personal_settings
#
# !REMARKS:
#  The .bashrc file contains settings that are common to all users of 
#  GEOS-Chem.  But here you can add settings that would only be applicable
#  to your own environment.
#
# !REVISION HISTORY: 
#  Change directory to ~/env and type 'gitk' at the prompt to browse
#  revision history.
#EOP
#------------------------------------------------------------------------------
#BOC

# %%%%% Environment settings %%%%%%
export TERM=xterm                        # Default terminal
export EDITOR=emacs                      # Default editor (emacs or vim)
export VISUAL=emacs                      # Default editor (emacs or vim)
export GIT_EDITOR=emacs                  # Default Git editor (emacs or vim)
export MAIL=/usr/spool/mail/$USER        # Default mail program
mail=$MAIL

# %%%%% Load different compiler versions %%%%%
alias  load_15="export LOAD_COMPILER=ifort15; sb; unset LOAD_COMPILER"
alias  load_13="export LOAD_COMPILER=ifort13; sb; unset LOAD_COMPILER"
alias  load_11="export LOAD_COMPILER=ifort11; sb; unset LOAD_COMPILER"
alias  load_pg="export LOAD_COMPILER=pgi; sb; unset LOAD_COMPILER"

# %%%%% Add your settings and aliases here %%%%%

#EOC
