#------------------------------------------------------------------------------
#          Harvard University Atmospheric Chemistry Modeling Group            !
#------------------------------------------------------------------------------
#BOP
#
# !MODULE: .my_personal_settings
#
# !DESCRIPTION: A .bashrc-style file that you can use to contain your own
#  personal settings for either the AS cluster or the Odyssey cluster.
#\\
#\\
# !CALLING SEQUENCE:
#  source ~/.my_personal_settings
#
# !REMARKS:
#  The .bashrc file contains settings that are common to all users of 
#  GEOS-Chem.  But here you can add settings that would only be applicable
#  to your own environment.
#
# !REVISION HISTORY: 
#  30 Oct 2014 - R. Yantosca - Initial version
#EOP
#------------------------------------------------------------------------------
#BOC

# %%%%% Environment settings %%%%%%
export TERM=xterm                        # Default terminal
export EDITOR=emacs                      # Default editor (emacs or vim)
export VISUAL=emacs                      # Default editor (emacs or vim)
export GIT_EDITOR=emacs                  # Default Git editor (emacs or vim)
export MAIL=/usr/spool/mail/$USER        # Default mail program
mail=$MAIL

# %%%%% Add your settings and aliases here %%%%%

#EOC
