#------------------------------------------------------------------------------
#          Harvard University Atmospheric Chemistry Modeling Group            !
#------------------------------------------------------------------------------
#BOP
#
# !MODULE: .my_personal_settings
#
# !DESCRIPTION: A .bashrc-style file that you can use to contain your own
#  personal settings for either the AS cluster or FAS RC's cluster.
#\\
#\\
# !CALLING SEQUENCE:
#  source ~/.my_personal_settings
#
# !REMARKS:
#  The .bashrc file contains settings that are common to all users of
#  GEOS-Chem.  But here you can add settings that would only be applicable
#  to your own environment. A few examples and recommendations are provided.
#
# !REVISION HISTORY:
#  Change directory to ~/env and type 'gitk' at the prompt to browse
#  revision history.
#EOP
#------------------------------------------------------------------------------
#BOC

# %%%%% Add your settings and aliases here %%%%%


########################################################################
# Here are a few recommendations and examples:

# Run awake script to prevent FAS RC interactive sessions from crashing
# due to inactivity
#~/bin/awake.sh &

# GEOS-Chem python virtual environment
# Activate with 'source activate gcpy'. Deactivate with 'source deactivate gcpy'
# when done. Libraries may impact other libraries on FAS RC's clusrer so we
# recommend using gcpy in a dedicated terminal. For more information, see
# /n/jacob_lab/Lab/python/README
#export PATH=$PATH:/n/jacob_lab/Lab/python/miniconda/bin

# Enable python to access the GCPy python library (download from Bitbucket)
#export PYTHONPATH=$PYTHONPATH:{yourpath}/GCPy

# Have fun with terminal aesthetics! This is just one possibility...
#pid=$$
#case $TERM in
# xterm*)
#    PS1="\[\033]0;\u@\h - $pid \007\]\[\e[1;32m\]FASRC \w $\[\e[0m\] "
#    ;;
#  *)
#    PS1="\[\e[1;32m\]\h \w $\[\e[0m\] "
#    ;;
#esac

# Make your neighbor happy by turning off terminal beeps
#set bell-style visible

# Make commands easier with aliases
#alias sag="source activate gcpy"
#alias sdg="conda deactivate"
#
######################################################################

#EOC
