#------------------------------------------------------------------------------
#          Harvard University Atmospheric Chemistry Modeling Group            !
#------------------------------------------------------------------------------
#BOP
#
# !MODULE: .my_personal_settings
#
# !DESCRIPTION: A .bashrc-style file that you can use to contain your own
#  personal settings for either the AS cluster or the Odyssey cluster.
#\\
#\\
# !CALLING SEQUENCE:
#  source ~/.my_personal_settings
#
# !REMARKS:
#  The .bashrc file contains settings that are common to all users of 
#  GEOS-Chem.  But here you can add settings that would only be applicable
#  to your own environment.
#
# !REVISION HISTORY: 
#  Change directory to ~/env and type 'gitk' at the prompt to browse
#  revision history.
#EOP
#------------------------------------------------------------------------------
#BOC

# %%%%% Add your settings and aliases here %%%%%

#EOC
